9
pyrrolate
C       -1.068939000      0.000000000      0.380656000
C       -0.705319000      0.000000000     -0.966447000
C        0.705319000      0.000000000     -0.966447000
C        1.068939000      0.000000000      0.380656000
N        0.000000000      0.000000000      1.201290000
H       -2.078155000      0.000000000      0.784750000
H       -1.365147000      0.000000000     -1.825702000
H        1.365147000      0.000000000     -1.825702000
H        2.078155000      0.000000000      0.784750000
