9
pyrrolate@water
C       -1.073195000      0.000000000      0.379757000
C       -0.706026000      0.000000000     -0.964400000
C        0.706150000      0.000000000     -0.964219000
C        1.073070000      0.000000000      0.379684000
N        0.000027000      0.000000000      1.201537000
H       -2.081252000      0.000000000      0.780486000
H       -1.364988000      0.000000000     -1.822699000
H        1.365021000      0.000000000     -1.822677000
H        2.081193000      0.000000000      0.780335000
