10
pyrrole
C       -1.114681038      0.000000000      0.330585709
C       -0.708476572      0.000000000     -0.977390065
C        0.708476572      0.000000000     -0.977390065
C        1.114681038      0.000000000      0.330585709
N        0.000000000      0.000000000      1.111889209
H       -2.102667851      0.000000000      0.759077920
H       -1.354836716      0.000000000     -1.839556578
H        1.354836716      0.000000000     -1.839556578
H        2.102667851      0.000000000      0.759077920
H        0.000000000      0.000000000      2.114760913
